pandapower/test/converter/testfiles/test_ucte_DE.uct
##C 2007.05.01
UCTE Export
test_ucte-Berechnungsfall

----- NODE BLOCK -----
_________1_________2_________3_________4_________5_________6_________7_________8_________9________10________11________12________13
1234567890123456789012345678901234567890123456789012345678901234567890123456789012345678901234567890123456789012345678901234567890
Node    |Node Name   |S|T|Volt  |PLoad  |QLoad  |PGen   |QGen   |Pmin   |Pmax   |Qmin   |Qmax   |Sta  |Pprim  |Sks__  |X/R    |T|

##N
##ZDE
DEHV1_1E EHV1_DE      0 3 380.00       0       0 -114.54 -485.93 9.99900 -9.9990 1.82725 -1.8273
DEHV2_1E EHV2_DE      0 0        1140.00 500.000       0       0
DHV1_D5  HV1_DE       0 0              0       0       0       0
##C

----- LINE BLOCK -----
_________1_________2_________3_________4_________5_________6_________7
1234567890123456789012345678901234567890123456789012345678901234567890
Node 1  |Node 2  |O|S|R(Ohm)|X(Ohm)|B(uS)   |I(A)  |Element Name|

##L
DEHV1_1E DEHV2_1E 1 0 0.7375 3.1625 172.7876   1920 Line1_DE
DEHV1_1E DEHV2_1E 2 0 1.4750 6.3250 86.39380    960 Line2_DE
##C

----- 2 WINDING TRANSFORMER BLOCK -----
_________1_________2_________3_________4_________5_________6_________7_________8_________9
123456789012345678901234567890123456789012345678901234567890123456789012345678901234567890
Node 1  |Node 2  |O|S|U1   |U2   |Sn   |R(Ohm)|X(Ohm)|B(uS)   |G(uS) |I(A)  |Element Name|

##T
DHV1_D5  DEHV1_1E 1 0 110.0 380.0 160.0 0.1891 9.2243 -6.19339 4.9587    840 trafo1_DE
##C

----- 2 WINDINGS TRANSFORMERS REGULATION BLOCK -----
_________1_________2_________3_________4_________5_________6_________7
1234567890123456789012345678901234567890123456789012345678901234567890
Node 1  |Node 2  |O|du   |mx|Tap|U    |du   |phitr|mx|Tap|P    |Type|

##R
DHV1_D5  DEHV1_1E 1 1.500  9   0
##C

----- 2 WINDINGS TRANSFORMERS DEPENDING ON THE TAP POSITION BLOCK -----
_________1_________2_________3_________4_________5_________6
123456789012345678901234567890123456789012345678901234567890
Node 1  |Node 2  |O| |Tap|R(Ohm)|X(Ohm)|du   |phi  |

##TT
